@<TRIPOS>MOLECULE
5mj6 - removed waters_ligand
83   86    1
SMALL
USER_CHARGES


@<TRIPOS>ATOM
      1 C1         13.5081  -30.9891  -23.1477 C.3       1 7O2         0.0588 
      2 C2         14.3640  -32.2192  -22.7926 C.3       1 7O2        -0.1928 
      3 C3         15.6777  -31.9066  -22.0339 C.3       1 7O2        -0.0050 
      4 C6         17.7036  -34.2107  -19.7675 C.ar      1 7O2        -0.1150 
      5 N11        13.0829  -30.2696  -21.8628 N.4       1 7O2        -0.2920 
      6 C15        12.3185  -32.3252  -25.5398 C.3       1 7O2        -0.3660 
      7 C16        11.9170  -33.8363  -25.5618 C.3       1 7O2        -0.1328 
      8 C17        11.1188  -34.1567  -26.8583 C.3       1 7O2        -0.1200 
      9 C18        10.6490  -35.6247  -27.0623 C.3       1 7O2         0.1700 
     10 C4         16.4075  -33.1406  -21.5068 C.ar      1 7O2        -0.1150 
     11 C5         17.0559  -33.0838  -20.2688 C.ar      1 7O2        -0.1150 
     12 C7         17.7033  -35.3937  -20.5047 C.ar      1 7O2        -0.1150 
     13 C8         17.0757  -35.4550  -21.7462 C.ar      1 7O2        -0.1150 
     14 C9         16.4378  -34.3252  -22.2481 C.ar      1 7O2        -0.1150 
     15 P12        11.8801  -31.3931  -23.9813 P.3       1 7O2         1.1844 
     16 O13        11.1438  -32.3156  -23.0545 O.co2     1 7O2        -0.8990 
     17 O14        11.2284  -30.0978  -24.3792 O.co2     1 7O2        -0.8990 
     18 C19         9.6254  -36.1360  -26.0441 C.ar      1 7O2        -0.1150 
     19 C20         9.8173  -37.3833  -25.4402 C.ar      1 7O2        -0.1150 
     20 C21         8.8120  -37.9361  -24.6533 C.ar      1 7O2        -0.1150 
     21 C22         7.6171  -37.2452  -24.4743 C.ar      1 7O2        -0.1150 
     22 C23         7.4253  -35.9944  -25.0510 C.ar      1 7O2        -0.1150 
     23 C24         8.4401  -35.4281  -25.8113 C.ar      1 7O2        -0.1150 
     24 C25        10.1178  -35.8853  -28.4718 C.ar      1 7O2        -0.1150 
     25 C26        10.6681  -36.9170  -29.2376 C.ar      1 7O2        -0.1150 
     26 C27        10.1086  -37.2423  -30.4682 C.ar      1 7O2        -0.1150 
     27 C28         9.0012  -36.5352  -30.9334 C.ar      1 7O2        -0.1150 
     28 C29         8.4634  -35.4927  -30.1879 C.ar      1 7O2        -0.1150 
     29 C30         9.0329  -35.1526  -28.9689 C.ar      1 7O2        -0.1150 
     30 C31        13.1666  -34.7261  -25.4049 C.2       1 7O2         0.5000 
     31 O32        14.1599  -34.4964  -26.0902 O.2       1 7O2        -0.5000 
     32 N33        13.1268  -35.7442  -24.5280 N.am      1 7O2        -0.5000 
     33 C34        14.2568  -36.6631  -24.3076 C.3       1 7O2         0.1400 
     34 C35        14.1098  -37.3858  -22.9449 C.3       1 7O2        -0.0050 
     35 C36        12.8599  -38.2303  -22.7212 C.ar      1 7O2        -0.1150 
     36 C37        11.9669  -37.9068  -21.6794 C.ar      1 7O2        -0.1150 
     37 C38        10.8410  -38.6886  -21.4605 C.ar      1 7O2        -0.1150 
     38 C39        10.5914  -39.8009  -22.2520 C.ar      1 7O2        -0.1150 
     39 C40        11.4566  -40.1305  -23.2859 C.ar      1 7O2        -0.1150 
     40 C41        12.5829  -39.3566  -23.5266 C.ar      1 7O2        -0.1150 
     41 C42        14.6194  -37.6160  -25.4787 C.2       1 7O2         0.5000 
     42 N43        13.7838  -37.7254  -26.5155 N.am      1 7O2        -0.7600 
     43 O44        15.6779  -38.2373  -25.4354 O.2       1 7O2        -0.5000 
     44 HC1        14.0820  -30.2448  -23.6970 H         1 7O2         0.1228 
     45 H2_1       14.6051  -32.7333  -23.7224 H         1 7O2         0.0600 
     46 H2_2       13.7664  -32.9165  -22.2045 H         1 7O2         0.0600 
     47 H3_1       15.4565  -31.2638  -21.1825 H         1 7O2         0.0600 
     48 H3_2       16.3569  -31.3448  -22.6770 H         1 7O2         0.0600 
     49 HC6        18.1976  -34.1693  -18.8073 H         1 7O2         0.1150 
     50 H111       12.6296  -29.3949  -22.1144 H         1 7O2         0.3300 
     51 H112       12.4395  -30.8201  -21.3083 H         1 7O2         0.3300 
     52 H113       13.8772  -30.0163  -21.2815 H         1 7O2         0.3300 
     53 H151       11.8136  -31.8129  -26.3534 H         1 7O2         0.1228 
     54 H152       13.3655  -32.1621  -25.7708 H         1 7O2         0.1228 
     55 HC16       11.2389  -34.0571  -24.7388 H         1 7O2         0.0600 
     56 H171       11.7407  -33.8789  -27.7097 H         1 7O2         0.0600 
     57 H172       10.2558  -33.4910  -26.9121 H         1 7O2         0.0600 
     58 HC18       11.5408  -36.2401  -26.9565 H         1 7O2         0.0600 
     59 HC5        17.0496  -32.1730  -19.6868 H         1 7O2         0.1150 
     60 HC7        18.2013  -36.2679  -20.1116 H         1 7O2         0.1150 
     61 HC8        17.0897  -36.3706  -22.3189 H         1 7O2         0.1150 
     62 HC9        15.9719  -34.3696  -23.2174 H         1 7O2         0.1150 
     63 HC20       10.7240  -37.9460  -25.6097 H         1 7O2         0.1150 
     64 HC21        8.9467  -38.9054  -24.2010 H         1 7O2         0.1150 
     65 HC22        6.8337  -37.6657  -23.8644 H         1 7O2         0.1150 
     66 HC23        6.4968  -35.4618  -24.9043 H         1 7O2         0.1150 
     67 HC24        8.2691  -34.4621  -26.2606 H         1 7O2         0.1150 
     68 HC26       11.5056  -37.4921  -28.8703 H         1 7O2         0.1150 
     69 HC27       10.5209  -38.0545  -31.0472 H         1 7O2         0.1150 
     70 HC28        8.5512  -36.7912  -31.8805 H         1 7O2         0.1150 
     71 HC29        7.6063  -34.9491  -30.5494 H         1 7O2         0.1150 
     72 HC30        8.5976  -34.3414  -28.4056 H         1 7O2         0.1150 
     73 HN33       12.2970  -35.9090  -23.9756 H         1 7O2         0.3000 
     74 HC34       15.1463  -36.0433  -24.2194 H         1 7O2         0.0600 
     75 H351       14.1670  -36.6395  -22.1506 H         1 7O2         0.0600 
     76 H352       14.9713  -38.0288  -22.7748 H         1 7O2         0.0600 
     77 HC37       12.1613  -37.0576  -21.0415 H         1 7O2         0.1150 
     78 HC38       10.1575  -38.4331  -20.6671 H         1 7O2         0.1150 
     79 HC39        9.7152  -40.4045  -22.0678 H         1 7O2         0.1150 
     80 HC40       11.2573  -40.9949  -23.9017 H         1 7O2         0.1150 
     81 HC41       13.2518  -39.6453  -24.3218 H         1 7O2         0.1150 
     82 H431       14.0173  -38.3353  -27.2849 H         1 7O2         0.3800 
     83 H432       12.9289  -37.1909  -26.5358 H         1 7O2         0.3800 
@<TRIPOS>BOND
     1    1    2 1    
     2    1    5 1    
     3    1   15 1    
     4    1   44 1    
     5    2    3 1    
     6    2   45 1    
     7    2   46 1    
     8    3   10 1    
     9    3   47 1    
    10    3   48 1    
    11    4   11 ar   
    12    4   12 ar   
    13    4   49 1    
    14    5   50 1    
    15    5   51 1    
    16    5   52 1    
    17    6    7 1    
    18    6   15 1    
    19    6   53 1    
    20    6   54 1    
    21    7    8 1    
    22    7   30 1    
    23    7   55 1    
    24    8    9 1    
    25    8   56 1    
    26    8   57 1    
    27    9   18 1    
    28    9   24 1    
    29    9   58 1    
    30   10   11 ar   
    31   10   14 ar   
    32   11   59 1    
    33   12   13 ar   
    34   12   60 1    
    35   13   14 ar   
    36   13   61 1    
    37   14   62 1    
    38   15   16 2    
    39   15   17 1    
    40   18   19 ar   
    41   18   23 ar   
    42   19   20 ar   
    43   19   63 1    
    44   20   21 ar   
    45   20   64 1    
    46   21   22 ar   
    47   21   65 1    
    48   22   23 ar   
    49   22   66 1    
    50   23   67 1    
    51   24   25 ar   
    52   24   29 ar   
    53   25   26 ar   
    54   25   68 1    
    55   26   27 ar   
    56   26   69 1    
    57   27   28 ar   
    58   27   70 1    
    59   28   29 ar   
    60   28   71 1    
    61   29   72 1    
    62   30   31 2    
    63   30   32 am   BACKBONE|DICT|INTERRES
    64   32   33 1    
    65   32   73 1    
    66   33   34 1    
    67   33   41 1    
    68   33   74 1    
    69   34   35 1    
    70   34   75 1    
    71   34   76 1    
    72   35   36 ar   
    73   35   40 ar   
    74   36   37 ar   
    75   36   77 1    
    76   37   38 ar   
    77   37   78 1    
    78   38   39 ar   
    79   38   79 1    
    80   39   40 ar   
    81   39   80 1    
    82   40   81 1    
    83   41   42 am   BACKBONE|DICT|INTERRES
    84   41   43 2    
    85   42   82 1    
    86   42   83 1    
@<TRIPOS>SUBSTRUCTURE
     1 7O2         1 GROUP             0 A     ****    0 ROOT    
