@<TRIPOS>MOLECULE
*****
 84 87 0 0 0
SMALL
GASTEIGER

@<TRIPOS>ATOM
      1 C1         13.5081  -30.9891  -23.1477 C.3     1  7O21        0.0526
      2 C2         14.3640  -32.2192  -22.7926 C.3     1  7O21        0.0033
      3 C3         15.6777  -31.9066  -22.0339 C.3     1  7O21       -0.0221
      4 C6         17.7036  -34.2107  -19.7675 C.ar    1  7O21       -0.0615
      5 N11        13.0829  -30.2696  -21.8628 N.4     1  7O21        0.2277
      6 C15        12.3185  -32.3252  -25.5398 C.3     1  7O21        0.0404
      7 C16        11.9170  -33.8363  -25.5618 C.3     1  7O21        0.0453
      8 C17        11.1188  -34.1567  -26.8583 C.3     1  7O21       -0.0306
      9 C18        10.6490  -35.6247  -27.0623 C.3     1  7O21        0.0099
     10 C4         16.4075  -33.1406  -21.5068 C.ar    1  7O21       -0.0471
     11 C5         17.0559  -33.0838  -20.2688 C.ar    1  7O21       -0.0586
     12 C7         17.7033  -35.3937  -20.5047 C.ar    1  7O21       -0.0617
     13 C8         17.0757  -35.4550  -21.7462 C.ar    1  7O21       -0.0615
     14 C9         16.4378  -34.3252  -22.2481 C.ar    1  7O21       -0.0586
     15 P12        11.8801  -31.3931  -23.9813 P.3     1  7O21        0.2488
     16 O13        11.1438  -32.3156  -23.0545 O.2     1  7O21       -0.2852
     17 O14        11.2284  -30.0978  -24.3792 O.3     1  7O21       -0.3400
     18 C19         9.6254  -36.1360  -26.0441 C.ar    1  7O21       -0.0399
     19 C20         9.8173  -37.3833  -25.4402 C.ar    1  7O21       -0.0580
     20 C21         8.8120  -37.9361  -24.6533 C.ar    1  7O21       -0.0615
     21 C22         7.6171  -37.2452  -24.4743 C.ar    1  7O21       -0.0617
     22 C23         7.4253  -35.9944  -25.0510 C.ar    1  7O21       -0.0615
     23 C24         8.4401  -35.4281  -25.8113 C.ar    1  7O21       -0.0580
     24 C25        10.1178  -35.8853  -28.4718 C.ar    1  7O21       -0.0399
     25 C26        10.6681  -36.9170  -29.2376 C.ar    1  7O21       -0.0580
     26 C27        10.1086  -37.2423  -30.4682 C.ar    1  7O21       -0.0615
     27 C28         9.0012  -36.5352  -30.9334 C.ar    1  7O21       -0.0617
     28 C29         8.4634  -35.4927  -30.1879 C.ar    1  7O21       -0.0615
     29 C30         9.0329  -35.1526  -28.9689 C.ar    1  7O21       -0.0580
     30 C31        13.1666  -34.7261  -25.4049 C.2     1  7O21        0.2172
     31 O32        14.1599  -34.4964  -26.0902 O.2     1  7O21       -0.2755
     32 N33        13.1268  -35.7442  -24.5280 N.am    1  7O21       -0.3035
     33 C34        14.2568  -36.6631  -24.3076 C.3     1  7O21        0.1031
     34 C35        14.1098  -37.3858  -22.9449 C.3     1  7O21       -0.0007
     35 C36        12.8599  -38.2303  -22.7212 C.ar    1  7O21       -0.0451
     36 C37        11.9669  -37.9068  -21.6794 C.ar    1  7O21       -0.0585
     37 C38        10.8410  -38.6886  -21.4605 C.ar    1  7O21       -0.0615
     38 C39        10.5914  -39.8009  -22.2520 C.ar    1  7O21       -0.0617
     39 C40        11.4566  -40.1305  -23.2859 C.ar    1  7O21       -0.0615
     40 C41        12.5829  -39.3566  -23.5266 C.ar    1  7O21       -0.0585
     41 C42        14.6194  -37.6160  -25.4787 C.2     1  7O21        0.2311
     42 N43        13.7838  -37.7254  -26.5155 N.am    1  7O21       -0.3278
     43 O44        15.6779  -38.2373  -25.4354 O.2     1  7O21       -0.2740
     44 H          14.1294  -30.4159  -23.8037 H       1  7O21        0.0954
     45 H          14.6179  -32.7207  -23.7030 H       1  7O21        0.0328
     46 H          13.7710  -32.8146  -22.1303 H       1  7O21        0.0328
     47 H          15.4425  -31.2756  -21.2024 H       1  7O21        0.0315
     48 H          16.3344  -31.4393  -22.7376 H       1  7O21        0.0315
     49 H          18.1818  -34.1698  -18.8539 H       1  7O21        0.0618
     50 H          12.4969  -30.8898  -21.3039 H       1  7O21        0.2002
     51 H          12.5570  -29.4290  -22.1020 H       1  7O21        0.2002
     52 H          13.9119  -30.0113  -21.3275 H       1  7O21        0.2002
     53 H          11.8289  -31.8430  -26.3600 H       1  7O21        0.0373
     54 H          13.3866  -32.3063  -25.6002 H       1  7O21        0.0373
     55 H          11.2760  -34.0485  -24.7318 H       1  7O21        0.0399
     56 H          11.7406  -33.8997  -27.6903 H       1  7O21        0.0282
     57 H          10.2160  -33.5889  -26.7723 H       1  7O21        0.0282
     58 H          11.5497  -36.1799  -26.9032 H       1  7O21        0.0397
     59 H          17.0545  -32.2060  -19.7261 H       1  7O21        0.0620
     60 H          18.1725  -36.2317  -20.1270 H       1  7O21        0.0618
     61 H          17.0837  -36.3321  -22.2900 H       1  7O21        0.0618
     62 H          15.9838  -34.3619  -23.1742 H       1  7O21        0.0620
     63 H          11.8169  -29.6098  -24.9762 H       1  7O21        0.2178
     64 H          10.7040  -37.8929  -25.5784 H       1  7O21        0.0620
     65 H           8.9517  -38.8547  -24.2041 H       1  7O21        0.0618
     66 H           6.8647  -37.6660  -23.9070 H       1  7O21        0.0618
     67 H           6.5350  -35.4905  -24.9149 H       1  7O21        0.0618
     68 H           8.3201  -34.4822  -26.2061 H       1  7O21        0.0620
     69 H          11.4890  -37.4369  -28.8899 H       1  7O21        0.0620
     70 H          10.5118  -38.0046  -31.0351 H       1  7O21        0.0618
     71 H           8.5768  -36.7880  -31.8395 H       1  7O21        0.0618
     72 H           7.6437  -34.9735  -30.5395 H       1  7O21        0.0618
     73 H           8.6563  -34.3585  -28.4279 H       1  7O21        0.0620
     74 H          12.3024  -35.8824  -24.0079 H       1  7O21        0.1495
     75 H          15.1222  -36.0348  -24.2740 H       1  7O21        0.0598
     76 H          14.1295  -36.6360  -22.1818 H       1  7O21        0.0336
     77 H          14.9175  -38.0872  -22.9225 H       1  7O21        0.0336
     78 H          12.1505  -37.0879  -21.0789 H       1  7O21        0.0620
     79 H          10.1847  -38.4409  -20.7036 H       1  7O21        0.0618
     80 H           9.7599  -40.3848  -22.0712 H       1  7O21        0.0618
     81 H          11.2617  -40.9535  -23.8773 H       1  7O21        0.0618
     82 H          13.2214  -39.6055  -24.2982 H       1  7O21        0.0620
     83 H          12.9415  -37.2159  -26.5247 H       1  7O21        0.1450
     84 H          14.0104  -38.3155  -27.2702 H       1  7O21        0.1450
@<TRIPOS>BOND
     1     1     2    1
     2     1     5    1
     3     1    15    1
     4     2     3    1
     5     3    10    1
     6     4    11   ar
     7     4    12   ar
     8     6     7    1
     9     6    15    1
    10     7     8    1
    11     7    30    1
    12     8     9    1
    13     9    18    1
    14     9    24    1
    15    10    11   ar
    16    10    14   ar
    17    12    13   ar
    18    13    14   ar
    19    15    16    2
    20    15    17    1
    21    18    19   ar
    22    18    23   ar
    23    19    20   ar
    24    20    21   ar
    25    21    22   ar
    26    22    23   ar
    27    24    25   ar
    28    24    29   ar
    29    25    26   ar
    30    26    27   ar
    31    27    28   ar
    32    28    29   ar
    33    30    31    2
    34    30    32   am
    35    32    33    1
    36    33    34    1
    37    33    41    1
    38    34    35    1
    39    35    36   ar
    40    35    40   ar
    41    36    37   ar
    42    37    38   ar
    43    38    39   ar
    44    39    40   ar
    45    41    42   am
    46    41    43    2
    47     1    44    1
    48     2    45    1
    49     2    46    1
    50     3    47    1
    51     3    48    1
    52     4    49    1
    53     5    50    1
    54     5    51    1
    55     5    52    1
    56     6    53    1
    57     6    54    1
    58     7    55    1
    59     8    56    1
    60     8    57    1
    61     9    58    1
    62    11    59    1
    63    12    60    1
    64    13    61    1
    65    14    62    1
    66    17    63    1
    67    19    64    1
    68    20    65    1
    69    21    66    1
    70    22    67    1
    71    23    68    1
    72    25    69    1
    73    26    70    1
    74    27    71    1
    75    28    72    1
    76    29    73    1
    77    32    74    1
    78    33    75    1
    79    34    76    1
    80    34    77    1
    81    36    78    1
    82    37    79    1
    83    38    80    1
    84    39    81    1
    85    40    82    1
    86    42    83    1
    87    42    84    1
