
 OpenBabel02102112173D

187191  0  0  1  0  0  0  0  0999 V2000
   29.1519    3.1421   72.8941 P   0  0  2  0  0  0  0  0  0  0  0  0
   29.1212    2.5181   75.7033 C   0  0  0  0  0  0  0  0  0  0  0  0
   28.7839    3.5972   74.6561 C   0  0  2  0  0  0  0  0  0  0  0  0
   28.7937    2.9462   77.1438 C   0  0  0  0  0  0  0  0  0  0  0  0
   29.0544    1.8400   78.1446 C   0  0  0  0  0  0  0  0  0  0  0  0
   27.3482    3.8819   74.7006 N   0  3  0  0  0  0  0  0  0  0  0  0
   29.2066    4.3796   72.0677 O   0  0  0  0  0  0  0  0  0  0  0  0
   28.1814    2.1273   72.4340 O   0  0  0  0  0  0  0  0  0  0  0  0
   30.3777    1.4464   78.4334 C   0  0  0  0  0  0  0  0  0  0  0  0
   30.6201    0.4041   79.3486 C   0  0  0  0  0  0  0  0  0  0  0  0
   29.5411   -0.2456   79.9791 C   0  0  0  0  0  0  0  0  0  0  0  0
   28.2192    0.1518   79.7004 C   0  0  0  0  0  0  0  0  0  0  0  0
   27.9754    1.1923   78.7828 C   0  0  0  0  0  0  0  0  0  0  0  0
   31.2115    1.6663   71.6948 C   0  0  2  0  0  0  0  0  0  0  0  0
   30.7759    0.1937   71.6295 C   0  0  0  0  0  0  0  0  0  0  0  0
   29.9763   -0.1662   70.7710 O   0  0  0  0  0  0  0  0  0  0  0  0
   32.7167    1.7948   71.3782 C   0  0  0  0  0  0  0  0  0  0  0  0
   33.0193    2.2691   69.9581 C   0  0  0  0  0  0  0  0  0  0  0  0
   32.8135    3.7847   69.8367 C   0  0  0  0  0  0  0  0  0  0  0  0
   32.2878    1.4986   68.8474 C   0  0  0  0  0  0  0  0  0  0  0  0
   30.8209    2.3581   73.0123 C   0  0  0  0  0  0  0  0  0  0  0  0
   31.3743   -0.6559   72.4827 N   0  0  0  0  0  0  0  0  0  0  0  0
   31.1758   -2.1046   72.5796 C   0  0  2  0  0  0  0  0  0  0  0  0
   31.9691   -2.8812   71.5163 C   0  0  0  0  0  0  0  0  0  0  0  0
   31.4183   -3.7476   70.8377 O   0  0  0  0  0  0  0  0  0  0  0  0
   29.6898   -2.5268   72.7540 C   0  0  0  0  0  0  0  0  0  0  0  0
   29.0081   -1.9016   73.9854 C   0  0  0  0  0  0  0  0  0  0  0  0
   29.5024   -2.4812   75.3246 C   0  0  0  0  0  0  0  0  0  0  0  0
   29.3137   -1.5239   76.5059 C   0  0  0  0  0  0  0  0  0  0  0  0
   27.8954   -1.3410   76.8366 N   0  3  0  0  0  0  0  0  0  0  0  0
   33.2669   -2.5611   71.3765 N   0  0  0  0  0  0  0  0  0  0  0  0
   34.2246   -3.2579   70.5173 C   0  0  2  0  0  0  0  0  0  0  0  0
   35.2469   -4.0363   71.3606 C   0  0  0  0  0  0  0  0  0  0  0  0
   35.7186   -3.5554   72.3911 O   0  0  0  0  0  0  0  0  0  0  0  0
   34.9830   -2.2314   69.6444 C   0  0  0  0  0  0  0  0  0  0  0  0
   34.2655   -1.7342   68.4095 C   0  0  0  0  0  0  0  0  0  0  0  0
   34.6147   -0.7558   67.5038 C   0  0  0  0  0  0  0  0  0  0  0  0
   33.0769   -2.2669   67.9324 N   0  0  0  0  0  0  0  0  0  0  0  0
   32.7787   -1.6225   66.8007 C   0  0  0  0  0  0  0  0  0  0  0  0
   33.6714   -0.6951   66.4758 N   0  0  0  0  0  0  0  0  0  0  0  0
   35.6061   -5.2281   70.8621 N   0  0  0  0  0  0  0  0  0  0  0  0
   36.6806   -6.1062   71.3193 C   0  0  2  0  0  0  0  0  0  0  0  0
   37.1678   -6.9061   70.1085 C   0  0  0  0  0  0  0  0  0  0  0  0
   38.1507   -6.5530   69.4593 O   0  0  0  0  0  0  0  0  0  0  0  0
   36.2488   -7.0055   72.5039 C   0  0  0  0  0  0  0  0  0  0  0  0
   36.3937   -6.4114   73.8777 C   0  0  0  0  0  0  0  0  0  0  0  0
   37.4956   -6.2752   74.6924 C   0  0  0  0  0  0  0  0  0  0  0  0
   35.3337   -5.8757   74.5866 N   0  0  0  0  0  0  0  0  0  0  0  0
   35.8174   -5.4670   75.7621 C   0  0  0  0  0  0  0  0  0  0  0  0
   37.1232   -5.6736   75.8956 N   0  0  0  0  0  0  0  0  0  0  0  0
   36.4057   -7.9620   69.8035 N   0  0  0  0  0  0  0  0  0  0  0  0
   36.4540   -8.8052   68.6208 C   0  0  2  0  0  0  0  0  0  0  0  0
   35.0050   -9.1102   68.2153 C   0  0  0  0  0  0  0  0  0  0  0  0
   34.0737   -8.5237   68.7722 O   0  0  0  0  0  0  0  0  0  0  0  0
   37.3177  -10.0454   68.9023 C   0  0  0  0  0  0  0  0  0  0  0  0
   34.8134   -9.9986   67.2258 N   0  0  0  0  0  0  0  0  0  0  0  0
   33.5267  -10.4590   66.6929 C   0  0  2  0  0  0  0  0  0  0  0  0
   32.8231   -9.3975   65.8375 C   0  0  0  0  0  0  0  0  0  0  0  0
   32.7141   -9.5685   64.6275 O   0  0  0  0  0  0  0  0  0  0  0  0
   32.5617  -11.0488   67.7654 C   0  0  0  0  0  0  0  0  0  0  0  0
   32.8245  -12.4315   68.3454 C   0  0  0  0  0  0  0  0  0  0  0  0
   33.7043  -13.3562   67.7410 C   0  0  0  0  0  0  0  0  0  0  0  0
   32.0848  -12.8283   69.4793 C   0  0  0  0  0  0  0  0  0  0  0  0
   33.8049  -14.6671   68.2441 C   0  0  0  0  0  0  0  0  0  0  0  0
   32.1823  -14.1403   69.9797 C   0  0  0  0  0  0  0  0  0  0  0  0
   33.0425  -15.0627   69.3594 C   0  0  0  0  0  0  0  0  0  0  0  0
   32.2793   -8.3646   66.5078 N   0  0  0  0  0  0  0  0  0  0  0  0
   31.2149   -7.4352   66.1076 C   0  0  2  0  0  0  0  0  0  0  0  0
   29.8477   -8.0638   66.4194 C   0  0  0  0  0  0  0  0  0  0  0  0
   29.0253   -7.4854   67.1251 O   0  0  0  0  0  0  0  0  0  0  0  0
   31.3185   -6.9084   64.6535 C   0  0  0  0  0  0  0  0  0  0  0  0
   32.5111   -6.1782   64.4592 O   0  0  0  0  0  0  0  0  0  0  0  0
   29.6694   -9.2806   65.8862 N   0  0  0  0  0  0  0  0  0  0  0  0
   28.5060  -10.1544   65.7694 C   0  0  2  0  0  0  0  0  0  0  0  0
   27.6134  -10.2961   67.0096 C   0  0  0  0  0  0  0  0  0  0  0  0
   26.3955  -10.3951   66.8664 O   0  0  0  0  0  0  0  0  0  0  0  0
   28.2319  -10.3860   68.1977 N   0  0  0  0  0  0  0  0  0  0  0  0
   27.6233  -10.7691   69.4708 C   0  0  2  0  0  0  0  0  0  0  0  0
   27.8158   -9.6630   70.5131 C   0  0  0  0  0  0  0  0  0  0  0  0
   26.8558   -9.4441   71.2852 O   0  0  0  0  0  0  0  0  0  0  0  0
   28.2432  -12.1062   69.9259 C   0  0  0  0  0  0  0  0  0  0  0  0
   27.5267  -12.7672   71.1176 C   0  0  0  0  0  0  0  0  0  0  0  0
   27.8451  -14.2706   71.2447 C   0  0  0  0  0  0  0  0  0  0  0  0
   26.7686  -15.0322   72.0341 C   0  0  0  0  0  0  0  0  0  0  0  0
   26.7283  -16.4614   71.6826 N   0  3  0  0  0  0  0  0  0  0  0  0
   28.9062   -9.0496   70.5118 O   0  5  0  0  0  0  0  0  0  0  0  0
   29.0147  -11.5562   65.3561 C   0  0  0  0  0  0  0  0  0  0  0  0
   29.9930  -11.6760   64.1903 C   0  0  0  0  0  0  0  0  0  0  0  0
   30.1608  -10.6451   63.2371 C   0  0  0  0  0  0  0  0  0  0  0  0
   30.7524  -12.8594   64.0633 C   0  0  0  0  0  0  0  0  0  0  0  0
   31.0997  -10.7832   62.1987 C   0  0  0  0  0  0  0  0  0  0  0  0
   31.6652  -13.0124   63.0019 C   0  0  0  0  0  0  0  0  0  0  0  0
   31.8426  -11.9718   62.0709 C   0  0  0  0  0  0  0  0  0  0  0  0
   30.1672    2.3011   75.6428 H   0  0  0  0  0  0  0  0  0  0  0  0
   28.5188    1.6619   75.4820 H   0  0  0  0  0  0  0  0  0  0  0  0
   29.4062    4.4266   74.9202 H   0  0  0  0  0  0  0  0  0  0  0  0
   27.7607    3.2203   77.1950 H   0  0  0  0  0  0  0  0  0  0  0  0
   29.4291    3.7702   77.3932 H   0  0  0  0  0  0  0  0  0  0  0  0
   26.8274    3.0454   74.4372 H   0  0  0  0  0  0  0  0  0  0  0  0
   27.1309    4.6366   74.0498 H   0  0  0  0  0  0  0  0  0  0  0  0
   27.0863    4.1620   75.6458 H   0  0  0  0  0  0  0  0  0  0  0  0
   28.3739    1.8898   71.5135 H   0  0  0  0  0  0  0  0  0  0  0  0
   31.1692    1.9229   77.9734 H   0  0  0  0  0  0  0  0  0  0  0  0
   31.5888    0.1161   79.5575 H   0  0  0  0  0  0  0  0  0  0  0  0
   29.7193   -1.0131   80.6455 H   0  0  0  0  0  0  0  0  0  0  0  0
   27.4292   -0.3192   80.1684 H   0  0  0  0  0  0  0  0  0  0  0  0
   27.0063    1.4813   78.5770 H   0  0  0  0  0  0  0  0  0  0  0  0
   30.6679    2.1940   70.9392 H   0  0  0  0  0  0  0  0  0  0  0  0
   33.1717    0.8362   71.5160 H   0  0  0  0  0  0  0  0  0  0  0  0
   33.1080    2.5383   72.0408 H   0  0  0  0  0  0  0  0  0  0  0  0
   34.0525    2.0441   69.7945 H   0  0  0  0  0  0  0  0  0  0  0  0
   31.7821    4.0187   69.9990 H   0  0  0  0  0  0  0  0  0  0  0  0
   33.1026    4.1066   68.8581 H   0  0  0  0  0  0  0  0  0  0  0  0
   33.4123    4.2857   70.5684 H   0  0  0  0  0  0  0  0  0  0  0  0
   31.2343    1.6656   68.9318 H   0  0  0  0  0  0  0  0  0  0  0  0
   32.4921    0.4528   68.9448 H   0  0  0  0  0  0  0  0  0  0  0  0
   32.6278    1.8410   67.8924 H   0  0  0  0  0  0  0  0  0  0  0  0
   30.8090    1.6308   73.7970 H   0  0  0  0  0  0  0  0  0  0  0  0
   31.5391    3.1247   73.2156 H   0  0  0  0  0  0  0  0  0  0  0  0
   32.0184   -0.2601   73.1134 H   0  0  0  0  0  0  0  0  0  0  0  0
   31.6132   -2.4090   73.5075 H   0  0  0  0  0  0  0  0  0  0  0  0
   29.6505   -3.5917   72.8506 H   0  0  0  0  0  0  0  0  0  0  0  0
   29.1619   -2.1748   71.8924 H   0  0  0  0  0  0  0  0  0  0  0  0
   27.9543   -2.0718   73.9115 H   0  0  0  0  0  0  0  0  0  0  0  0
   29.2531   -0.8600   73.9847 H   0  0  0  0  0  0  0  0  0  0  0  0
   30.5444   -2.7065   75.2332 H   0  0  0  0  0  0  0  0  0  0  0  0
   28.9174   -3.3539   75.5274 H   0  0  0  0  0  0  0  0  0  0  0  0
   29.7359   -0.5738   76.2529 H   0  0  0  0  0  0  0  0  0  0  0  0
   29.8027   -1.9466   77.3586 H   0  0  0  0  0  0  0  0  0  0  0  0
   27.4088   -0.9381   76.0358 H   0  0  0  0  0  0  0  0  0  0  0  0
   27.8109   -0.7138   77.6365 H   0  0  0  0  0  0  0  0  0  0  0  0
   27.4809   -2.2440   77.0673 H   0  0  0  0  0  0  0  0  0  0  0  0
   33.6010   -1.7940   71.8953 H   0  0  0  0  0  0  0  0  0  0  0  0
   33.6827   -3.9431   69.8994 H   0  0  0  0  0  0  0  0  0  0  0  0
   35.8977   -2.6872   69.3274 H   0  0  0  0  0  0  0  0  0  0  0  0
   35.1077   -1.3691   70.2656 H   0  0  0  0  0  0  0  0  0  0  0  0
   35.4512   -0.1556   67.5749 H   0  0  0  0  0  0  0  0  0  0  0  0
   32.5506   -2.9864   68.3502 H   0  0  0  0  0  0  0  0  0  0  0  0
   31.9390   -1.8252   66.2360 H   0  0  0  0  0  0  0  0  0  0  0  0
   35.0816   -5.5510   70.0940 H   0  0  0  0  0  0  0  0  0  0  0  0
   37.4876   -5.5239   71.7124 H   0  0  0  0  0  0  0  0  0  0  0  0
   36.8405   -7.8963   72.4697 H   0  0  0  0  0  0  0  0  0  0  0  0
   35.1994   -7.1674   72.3719 H   0  0  0  0  0  0  0  0  0  0  0  0
   38.4533   -6.5733   74.4497 H   0  0  0  0  0  0  0  0  0  0  0  0
   34.3998   -5.8085   74.2822 H   0  0  0  0  0  0  0  0  0  0  0  0
   35.2344   -5.0333   76.4949 H   0  0  0  0  0  0  0  0  0  0  0  0
   35.7204   -8.1998   70.4691 H   0  0  0  0  0  0  0  0  0  0  0  0
   36.9249   -8.3230   67.7898 H   0  0  0  0  0  0  0  0  0  0  0  0
   36.9068  -10.5860   69.7293 H   0  0  0  0  0  0  0  0  0  0  0  0
   38.3158   -9.7392   69.1369 H   0  0  0  0  0  0  0  0  0  0  0  0
   37.3317  -10.6742   68.0367 H   0  0  0  0  0  0  0  0  0  0  0  0
   35.6222  -10.3811   66.8149 H   0  0  0  0  0  0  0  0  0  0  0  0
   33.7874  -11.2745   66.0510 H   0  0  0  0  0  0  0  0  0  0  0  0
   31.5883  -11.0793   67.3221 H   0  0  0  0  0  0  0  0  0  0  0  0
   32.6989  -10.3992   68.6045 H   0  0  0  0  0  0  0  0  0  0  0  0
   34.2742  -13.0705   66.9294 H   0  0  0  0  0  0  0  0  0  0  0  0
   31.4650  -12.1487   69.9473 H   0  0  0  0  0  0  0  0  0  0  0  0
   34.4415  -15.3423   67.7925 H   0  0  0  0  0  0  0  0  0  0  0  0
   31.6238  -14.4242   70.7997 H   0  0  0  0  0  0  0  0  0  0  0  0
   33.1149  -16.0268   69.7204 H   0  0  0  0  0  0  0  0  0  0  0  0
   32.6529   -8.2079   67.4051 H   0  0  0  0  0  0  0  0  0  0  0  0
   31.3389   -6.5478   66.6925 H   0  0  0  0  0  0  0  0  0  0  0  0
   30.4825   -6.2715   64.4526 H   0  0  0  0  0  0  0  0  0  0  0  0
   31.3222   -7.7468   63.9887 H   0  0  0  0  0  0  0  0  0  0  0  0
   32.5229   -5.4135   65.0558 H   0  0  0  0  0  0  0  0  0  0  0  0
   30.4882   -9.6618   65.4944 H   0  0  0  0  0  0  0  0  0  0  0  0
   27.8713   -9.6883   65.0449 H   0  0  0  0  0  0  0  0  0  0  0  0
   29.1928  -10.1723   68.2134 H   0  0  0  0  0  0  0  0  0  0  0  0
   26.5678  -10.9001   69.3537 H   0  0  0  0  0  0  0  0  0  0  0  0
   29.2601  -11.9255   70.2053 H   0  0  0  0  0  0  0  0  0  0  0  0
   28.1506  -12.7818   69.1013 H   0  0  0  0  0  0  0  0  0  0  0  0
   26.4708  -12.6507   70.9895 H   0  0  0  0  0  0  0  0  0  0  0  0
   27.8728  -12.2873   72.0091 H   0  0  0  0  0  0  0  0  0  0  0  0
   28.7831  -14.3820   71.7472 H   0  0  0  0  0  0  0  0  0  0  0  0
   27.8782  -14.6819   70.2575 H   0  0  0  0  0  0  0  0  0  0  0  0
   25.8139  -14.5981   71.8220 H   0  0  0  0  0  0  0  0  0  0  0  0
   27.0084  -14.9562   73.0741 H   0  0  0  0  0  0  0  0  0  0  0  0
   26.5010  -16.5619   70.6933 H   0  0  0  0  0  0  0  0  0  0  0  0
   26.0171  -16.9297   72.2441 H   0  0  0  0  0  0  0  0  0  0  0  0
   27.6388  -16.8826   71.8668 H   0  0  0  0  0  0  0  0  0  0  0  0
   28.1541  -12.1400   65.1042 H   0  0  0  0  0  0  0  0  0  0  0  0
   29.5834  -11.8818   66.2020 H   0  0  0  0  0  0  0  0  0  0  0  0
   29.5915   -9.7869   63.3036 H   0  0  0  0  0  0  0  0  0  0  0  0
   30.6377  -13.6180   64.7535 H   0  0  0  0  0  0  0  0  0  0  0  0
   31.2441  -10.0113   61.5291 H   0  0  0  0  0  0  0  0  0  0  0  0
   32.2040  -13.8874   62.9067 H   0  0  0  0  0  0  0  0  0  0  0  0
   32.5159  -12.0801   61.2963 H   0  0  0  0  0  0  0  0  0  0  0  0
  1  7  2  6  0  0  0
  1  8  1  0  0  0  0
  1 21  1  0  0  0  0
  1  3  1  0  0  0  0
  2  3  1  0  0  0  0
  2  4  1  0  0  0  0
  2 94  1  0  0  0  0
  2 95  1  0  0  0  0
  3  6  1  0  0  0  0
  3 96  1  1  0  0  0
  4  5  1  0  0  0  0
  4 97  1  0  0  0  0
  4 98  1  0  0  0  0
  5  9  2  0  0  0  0
  5 13  1  0  0  0  0
  6 99  1  0  0  0  0
  6100  1  0  0  0  0
  6101  1  0  0  0  0
  8102  1  0  0  0  0
  9 10  1  0  0  0  0
  9103  1  0  0  0  0
 10 11  2  0  0  0  0
 10104  1  0  0  0  0
 11 12  1  0  0  0  0
 11105  1  0  0  0  0
 12 13  2  0  0  0  0
 12106  1  0  0  0  0
 13107  1  0  0  0  0
 14 15  1  0  0  0  0
 14 17  1  0  0  0  0
 14 21  1  0  0  0  0
 14108  1  6  0  0  0
 15 16  2  0  0  0  0
 15 22  1  0  0  0  0
 17 18  1  0  0  0  0
 17109  1  0  0  0  0
 17110  1  0  0  0  0
 18 19  1  0  0  0  0
 18 20  1  0  0  0  0
 18111  1  0  0  0  0
 19112  1  0  0  0  0
 19113  1  0  0  0  0
 19114  1  0  0  0  0
 20115  1  0  0  0  0
 20116  1  0  0  0  0
 20117  1  0  0  0  0
 21118  1  0  0  0  0
 21119  1  0  0  0  0
 22 23  1  0  0  0  0
 22120  1  0  0  0  0
 23 24  1  0  0  0  0
 23 26  1  0  0  0  0
 23121  1  1  0  0  0
 24 25  2  0  0  0  0
 24 31  1  0  0  0  0
 26 27  1  0  0  0  0
 26122  1  0  0  0  0
 26123  1  0  0  0  0
 27 28  1  0  0  0  0
 27124  1  0  0  0  0
 27125  1  0  0  0  0
 28 29  1  0  0  0  0
 28126  1  0  0  0  0
 28127  1  0  0  0  0
 29 30  1  0  0  0  0
 29128  1  0  0  0  0
 29129  1  0  0  0  0
 30130  1  0  0  0  0
 30131  1  0  0  0  0
 30132  1  0  0  0  0
 31 32  1  0  0  0  0
 31133  1  0  0  0  0
 32 33  1  0  0  0  0
 32 35  1  0  0  0  0
 32134  1  6  0  0  0
 33 34  2  0  0  0  0
 33 41  1  0  0  0  0
 35 36  1  0  0  0  0
 35135  1  0  0  0  0
 35136  1  0  0  0  0
 36 37  2  0  0  0  0
 36 38  1  0  0  0  0
 37 40  1  0  0  0  0
 37137  1  0  0  0  0
 38 39  1  0  0  0  0
 38138  1  0  0  0  0
 39 40  2  0  0  0  0
 39139  1  0  0  0  0
 41 42  1  0  0  0  0
 41140  1  0  0  0  0
 42 43  1  0  0  0  0
 42 45  1  0  0  0  0
 42141  1  1  0  0  0
 43 44  2  0  0  0  0
 43 51  1  0  0  0  0
 45 46  1  0  0  0  0
 45142  1  0  0  0  0
 45143  1  0  0  0  0
 46 47  2  0  0  0  0
 46 48  1  0  0  0  0
 47 50  1  0  0  0  0
 47144  1  0  0  0  0
 48 49  1  0  0  0  0
 48145  1  0  0  0  0
 49 50  2  0  0  0  0
 49146  1  0  0  0  0
 51 52  1  0  0  0  0
 51147  1  0  0  0  0
 52 53  1  0  0  0  0
 52 55  1  0  0  0  0
 52148  1  6  0  0  0
 53 54  2  0  0  0  0
 53 56  1  0  0  0  0
 55149  1  0  0  0  0
 55150  1  0  0  0  0
 55151  1  0  0  0  0
 56 57  1  0  0  0  0
 56152  1  0  0  0  0
 57 58  1  0  0  0  0
 57 60  1  0  0  0  0
 57153  1  6  0  0  0
 58 59  2  0  0  0  0
 58 67  1  0  0  0  0
 60 61  1  0  0  0  0
 60154  1  0  0  0  0
 60155  1  0  0  0  0
 61 62  2  0  0  0  0
 61 63  1  0  0  0  0
 62 64  1  0  0  0  0
 62156  1  0  0  0  0
 63 65  2  0  0  0  0
 63157  1  0  0  0  0
 64 66  2  0  0  0  0
 64158  1  0  0  0  0
 65 66  1  0  0  0  0
 65159  1  0  0  0  0
 66160  1  0  0  0  0
 67 68  1  0  0  0  0
 67161  1  0  0  0  0
 68 69  1  0  0  0  0
 68 71  1  0  0  0  0
 68162  1  1  0  0  0
 69 70  2  0  0  0  0
 69 73  1  0  0  0  0
 71 72  1  0  0  0  0
 71163  1  0  0  0  0
 71164  1  0  0  0  0
 72165  1  0  0  0  0
 73 74  1  0  0  0  0
 73166  1  0  0  0  0
 74 75  1  0  0  0  0
 74 87  1  0  0  0  0
 74167  1  6  0  0  0
 75 76  2  0  0  0  0
 75 77  1  0  0  0  0
 77 78  1  0  0  0  0
 77168  1  0  0  0  0
 78 79  1  0  0  0  0
 78 81  1  0  0  0  0
 78169  1  6  0  0  0
 79 80  2  0  0  0  0
 79 86  1  0  0  0  0
 81 82  1  0  0  0  0
 81170  1  0  0  0  0
 81171  1  0  0  0  0
 82 83  1  0  0  0  0
 82172  1  0  0  0  0
 82173  1  0  0  0  0
 83 84  1  0  0  0  0
 83174  1  0  0  0  0
 83175  1  0  0  0  0
 84 85  1  0  0  0  0
 84176  1  0  0  0  0
 84177  1  0  0  0  0
 85178  1  0  0  0  0
 85179  1  0  0  0  0
 85180  1  0  0  0  0
 87 88  1  0  0  0  0
 87181  1  0  0  0  0
 87182  1  0  0  0  0
 88 89  2  0  0  0  0
 88 90  1  0  0  0  0
 89 91  1  0  0  0  0
 89183  1  0  0  0  0
 90 92  2  0  0  0  0
 90184  1  0  0  0  0
 91 93  2  0  0  0  0
 91185  1  0  0  0  0
 92 93  1  0  0  0  0
 92186  1  0  0  0  0
 93187  1  0  0  0  0
M  CHG  4   6   1  30   1  85   1  86  -1
M  END
