@<TRIPOS>MOLECULE
*****
 187 191 0 0 0
SMALL
GASTEIGER

@<TRIPOS>ATOM
      1 P11        29.1519    3.1421   72.8941 P.3     1  DG021       0.2488
      2 C1         29.1212    2.5181   75.7033 C.3     1  DG021       0.0033
      3 C3         28.7839    3.5972   74.6561 C.3     1  DG021       0.0526
      4 C6         28.7937    2.9462   77.1438 C.3     1  DG021      -0.0221
      5 C8         29.0544    1.8400   78.1446 C.ar    1  DG021      -0.0471
      6 N10        27.3482    3.8819   74.7006 N.4     1  DG021       0.2277
      7 O12        29.2066    4.3796   72.0677 O.2     1  DG021      -0.2852
      8 O13        28.1814    2.1273   72.4340 O.3     1  DG021      -0.3400
      9 C17        30.3777    1.4464   78.4334 C.ar    1  DG021      -0.0586
     10 C18        30.6201    0.4041   79.3486 C.ar    1  DG021      -0.0615
     11 C19        29.5411   -0.2456   79.9791 C.ar    1  DG021      -0.0617
     12 C20        28.2192    0.1518   79.7004 C.ar    1  DG021      -0.0615
     13 C21        27.9754    1.1923   78.7828 C.ar    1  DG021      -0.0586
     14 CA         31.2115    1.6663   71.6948 C.3     1  DG021       0.0447
     15 C          30.7759    0.1937   71.6295 C.2     1  DG021       0.2172
     16 O          29.9763   -0.1662   70.7710 O.2     1  DG021      -0.2755
     17 CB         32.7167    1.7948   71.3782 C.3     1  DG021      -0.0391
     18 CG         33.0193    2.2691   69.9581 C.3     1  DG021      -0.0460
     19 CD1        32.8135    3.7847   69.8367 C.3     1  DG021      -0.0626
     20 CD2        32.2878    1.4986   68.8474 C.3     1  DG021      -0.0626
     21 C1         30.8209    2.3581   73.0123 C.3     1  DG021       0.0404
     22 N          31.3743   -0.6559   72.4827 N.am    1  DG021      -0.3038
     23 CA         31.1758   -2.1046   72.5796 C.3     1  DG021       0.0994
     24 C          31.9691   -2.8812   71.5163 C.2     1  DG021       0.2340
     25 O          31.4183   -3.7476   70.8377 O.2     1  DG021      -0.2738
     26 CB         29.6898   -2.5268   72.7540 C.3     1  DG021      -0.0258
     27 CG         29.0081   -1.9016   73.9854 C.3     1  DG021      -0.0461
     28 CD         29.5024   -2.4812   75.3246 C.3     1  DG021      -0.0126
     29 CE         29.3137   -1.5239   76.5059 C.3     1  DG021      -0.0354
     30 NZ         27.8954   -1.3410   76.8366 N.4     1  DG021       0.2185
     31 N          33.2669   -2.5611   71.3765 N.am    1  DG021      -0.3021
     32 CA         34.2246   -3.2579   70.5173 C.3     1  DG021       0.1048
     33 C          35.2469   -4.0363   71.3606 C.2     1  DG021       0.2343
     34 O          35.7186   -3.5554   72.3911 O.2     1  DG021      -0.2738
     35 CB         34.9830   -2.2314   69.6444 C.3     1  DG021       0.0160
     36 CG         34.2655   -1.7342   68.4095 C.ar    1  DG021       0.0375
     37 CD2        34.6147   -0.7558   67.5038 C.ar    1  DG021       0.0485
     38 ND1        33.0769   -2.2669   67.9324 N.ar    1  DG021      -0.3481
     39 CE1        32.7787   -1.6225   66.8007 C.ar    1  DG021       0.0935
     40 NE2        33.6714   -0.6951   66.4758 N.ar    1  DG021      -0.2440
     41 N          35.6061   -5.2281   70.8621 N.am    1  DG021      -0.3021
     42 CA         36.6806   -6.1062   71.3193 C.3     1  DG021       0.1048
     43 C          37.1678   -6.9061   70.1085 C.2     1  DG021       0.2343
     44 O          38.1507   -6.5530   69.4593 O.2     1  DG021      -0.2738
     45 CB         36.2488   -7.0055   72.5039 C.3     1  DG021       0.0160
     46 CG         36.3937   -6.4114   73.8777 C.ar    1  DG021       0.0375
     47 CD2        37.4956   -6.2752   74.6924 C.ar    1  DG021       0.0485
     48 ND1        35.3337   -5.8757   74.5866 N.ar    1  DG021      -0.3481
     49 CE1        35.8174   -5.4670   75.7621 C.ar    1  DG021       0.0935
     50 NE2        37.1232   -5.6736   75.8956 N.ar    1  DG021      -0.2440
     51 N          36.4057   -7.9620   69.8035 N.am    1  DG021      -0.3027
     52 CA         36.4540   -8.8052   68.6208 C.3     1  DG021       0.0966
     53 C          35.0050   -9.1102   68.2153 C.2     1  DG021       0.2337
     54 O          34.0737   -8.5237   68.7722 O.2     1  DG021      -0.2738
     55 CB         37.3177  -10.0454   68.9023 C.3     1  DG021      -0.0381
     56 N          34.8134   -9.9986   67.2258 N.am    1  DG021      -0.3022
     57 CA         33.5267  -10.4590   66.6929 C.3     1  DG021       0.1034
     58 C          32.8231   -9.3975   65.8375 C.2     1  DG021       0.2343
     59 O          32.7141   -9.5685   64.6275 O.2     1  DG021      -0.2738
     60 CB         32.5617  -11.0488   67.7654 C.3     1  DG021      -0.0007
     61 CG         32.8245  -12.4315   68.3454 C.ar    1  DG021      -0.0451
     62 CD1        33.7043  -13.3562   67.7410 C.ar    1  DG021      -0.0585
     63 CD2        32.0848  -12.8283   69.4793 C.ar    1  DG021      -0.0585
     64 CE1        33.8049  -14.6671   68.2441 C.ar    1  DG021      -0.0615
     65 CE2        32.1823  -14.1403   69.9797 C.ar    1  DG021      -0.0615
     66 CZ         33.0425  -15.0627   69.3594 C.ar    1  DG021      -0.0617
     67 N          32.2793   -8.3646   66.5078 N.am    1  DG021      -0.3006
     68 CA         31.2149   -7.4352   66.1076 C.3     1  DG021       0.1226
     69 C          29.8477   -8.0638   66.4194 C.2     1  DG021       0.2362
     70 O          29.0253   -7.4854   67.1251 O.2     1  DG021      -0.2737
     71 CB         31.3185   -6.9084   64.6535 C.3     1  DG021       0.0711
     72 OG         32.5111   -6.1782   64.4592 O.3     1  DG021      -0.3927
     73 N          29.6694   -9.2806   65.8862 N.am    1  DG021      -0.3021
     74 CA         28.5060  -10.1544   65.7694 C.3     1  DG021       0.1034
     75 C          27.6134  -10.2961   67.0096 C.2     1  DG021       0.2342
     76 O          26.3955  -10.3951   66.8664 O.2     1  DG021      -0.2738
     77 N          28.2319  -10.3860   68.1977 N.am    1  DG021      -0.3058
     78 CA         27.6233  -10.7691   69.4708 C.3     1  DG021       0.0626
     79 C          27.8158   -9.6630   70.5131 C.2     1  DG021       0.0619
     80 O          26.8558   -9.4441   71.2852 O.co2   1  DG021      -0.5479
     81 CB         28.2432  -12.1062   69.9259 C.3     1  DG021      -0.0290
     82 CG         27.5267  -12.7672   71.1176 C.3     1  DG021      -0.0462
     83 CD         27.8451  -14.2706   71.2447 C.3     1  DG021      -0.0126
     84 CE         26.7686  -15.0322   72.0341 C.3     1  DG021      -0.0354
     85 NZ         26.7283  -16.4614   71.6826 N.4     1  DG021       0.2185
     86 OXT        28.9062   -9.0496   70.5118 O.co2   1  DG021      -0.5479
     87 CB         29.0147  -11.5562   65.3561 C.3     1  DG021      -0.0007
     88 CG         29.9930  -11.6760   64.1903 C.ar    1  DG021      -0.0451
     89 CD1        30.1608  -10.6451   63.2371 C.ar    1  DG021      -0.0585
     90 CD2        30.7524  -12.8594   64.0633 C.ar    1  DG021      -0.0585
     91 CE1        31.0997  -10.7832   62.1987 C.ar    1  DG021      -0.0615
     92 CE2        31.6652  -13.0124   63.0019 C.ar    1  DG021      -0.0615
     93 CZ         31.8426  -11.9718   62.0709 C.ar    1  DG021      -0.0617
     94 H          30.1672    2.3011   75.6428 H       1  DG021       0.0328
     95 H          28.5188    1.6619   75.4820 H       1  DG021       0.0328
     96 H          29.4062    4.4266   74.9202 H       1  DG021       0.0954
     97 H          27.7607    3.2203   77.1950 H       1  DG021       0.0315
     98 H          29.4291    3.7702   77.3932 H       1  DG021       0.0315
     99 H          26.8274    3.0454   74.4372 H       1  DG021       0.2002
    100 H          27.1309    4.6366   74.0498 H       1  DG021       0.2002
    101 H          27.0863    4.1620   75.6458 H       1  DG021       0.2002
    102 H          28.3739    1.8898   71.5135 H       1  DG021       0.2178
    103 H          31.1692    1.9229   77.9734 H       1  DG021       0.0620
    104 H          31.5888    0.1161   79.5575 H       1  DG021       0.0618
    105 H          29.7193   -1.0131   80.6455 H       1  DG021       0.0618
    106 H          27.4292   -0.3192   80.1684 H       1  DG021       0.0618
    107 H          27.0063    1.4813   78.5770 H       1  DG021       0.0620
    108 H          30.6679    2.1940   70.9392 H       1  DG021       0.0399
    109 H          33.1717    0.8362   71.5160 H       1  DG021       0.0275
    110 H          33.1080    2.5383   72.0408 H       1  DG021       0.0275
    111 H          34.0525    2.0441   69.7945 H       1  DG021       0.0296
    112 H          31.7821    4.0187   69.9990 H       1  DG021       0.0232
    113 H          33.1026    4.1066   68.8581 H       1  DG021       0.0232
    114 H          33.4123    4.2857   70.5684 H       1  DG021       0.0232
    115 H          31.2343    1.6656   68.9318 H       1  DG021       0.0232
    116 H          32.4921    0.4528   68.9448 H       1  DG021       0.0232
    117 H          32.6278    1.8410   67.8924 H       1  DG021       0.0232
    118 H          30.8090    1.6308   73.7970 H       1  DG021       0.0373
    119 H          31.5391    3.1247   73.2156 H       1  DG021       0.0373
    120 H          32.0184   -0.2601   73.1134 H       1  DG021       0.1495
    121 H          31.6132   -2.4090   73.5075 H       1  DG021       0.0594
    122 H          29.6505   -3.5917   72.8506 H       1  DG021       0.0288
    123 H          29.1619   -2.1748   71.8924 H       1  DG021       0.0288
    124 H          27.9543   -2.0718   73.9115 H       1  DG021       0.0268
    125 H          29.2531   -0.8600   73.9847 H       1  DG021       0.0268
    126 H          30.5444   -2.7065   75.2332 H       1  DG021       0.0317
    127 H          28.9174   -3.3539   75.5274 H       1  DG021       0.0317
    128 H          29.7359   -0.5738   76.2529 H       1  DG021       0.0813
    129 H          29.8027   -1.9466   77.3586 H       1  DG021       0.0813
    130 H          27.4088   -0.9381   76.0358 H       1  DG021       0.1994
    131 H          27.8109   -0.7138   77.6365 H       1  DG021       0.1994
    132 H          27.4809   -2.2440   77.0673 H       1  DG021       0.1994
    133 H          33.6010   -1.7940   71.8953 H       1  DG021       0.1495
    134 H          33.6827   -3.9431   69.8994 H       1  DG021       0.0598
    135 H          35.8977   -2.6872   69.3274 H       1  DG021       0.0351
    136 H          35.1077   -1.3691   70.2656 H       1  DG021       0.0351
    137 H          35.4512   -0.1556   67.5749 H       1  DG021       0.0848
    138 H          32.5506   -2.9864   68.3502 H       1  DG021       0.1665
    139 H          31.9390   -1.8252   66.2360 H       1  DG021       0.1027
    140 H          35.0816   -5.5510   70.0940 H       1  DG021       0.1495
    141 H          37.4876   -5.5239   71.7124 H       1  DG021       0.0598
    142 H          36.8405   -7.8963   72.4697 H       1  DG021       0.0351
    143 H          35.1994   -7.1674   72.3719 H       1  DG021       0.0351
    144 H          38.4533   -6.5733   74.4497 H       1  DG021       0.0848
    145 H          34.3998   -5.8085   74.2822 H       1  DG021       0.1665
    146 H          35.2344   -5.0333   76.4949 H       1  DG021       0.1027
    147 H          35.7204   -8.1998   70.4691 H       1  DG021       0.1495
    148 H          36.9249   -8.3230   67.7898 H       1  DG021       0.0592
    149 H          36.9068  -10.5860   69.7293 H       1  DG021       0.0252
    150 H          38.3158   -9.7392   69.1369 H       1  DG021       0.0252
    151 H          37.3317  -10.6742   68.0367 H       1  DG021       0.0252
    152 H          35.6222  -10.3811   66.8149 H       1  DG021       0.1495
    153 H          33.7874  -11.2745   66.0510 H       1  DG021       0.0598
    154 H          31.5883  -11.0793   67.3221 H       1  DG021       0.0336
    155 H          32.6989  -10.3992   68.6045 H       1  DG021       0.0336
    156 H          34.2742  -13.0705   66.9294 H       1  DG021       0.0620
    157 H          31.4650  -12.1487   69.9473 H       1  DG021       0.0620
    158 H          34.4415  -15.3423   67.7925 H       1  DG021       0.0618
    159 H          31.6238  -14.4242   70.7997 H       1  DG021       0.0618
    160 H          33.1149  -16.0268   69.7204 H       1  DG021       0.0618
    161 H          32.6529   -8.2079   67.4051 H       1  DG021       0.1496
    162 H          31.3389   -6.5478   66.6925 H       1  DG021       0.0618
    163 H          30.4825   -6.2715   64.4526 H       1  DG021       0.0580
    164 H          31.3222   -7.7468   63.9887 H       1  DG021       0.0580
    165 H          32.5229   -5.4135   65.0558 H       1  DG021       0.2095
    166 H          30.4882   -9.6618   65.4944 H       1  DG021       0.1495
    167 H          27.8713   -9.6883   65.0449 H       1  DG021       0.0598
    168 H          29.1928  -10.1723   68.2134 H       1  DG021       0.1494
    169 H          26.5678  -10.9001   69.3537 H       1  DG021       0.0560
    170 H          29.2601  -11.9255   70.2053 H       1  DG021       0.0287
    171 H          28.1506  -12.7818   69.1013 H       1  DG021       0.0287
    172 H          26.4708  -12.6507   70.9895 H       1  DG021       0.0268
    173 H          27.8728  -12.2873   72.0091 H       1  DG021       0.0268
    174 H          28.7831  -14.3820   71.7472 H       1  DG021       0.0317
    175 H          27.8782  -14.6819   70.2575 H       1  DG021       0.0317
    176 H          25.8139  -14.5981   71.8220 H       1  DG021       0.0813
    177 H          27.0084  -14.9562   73.0741 H       1  DG021       0.0813
    178 H          26.5010  -16.5619   70.6933 H       1  DG021       0.1994
    179 H          26.0171  -16.9297   72.2441 H       1  DG021       0.1994
    180 H          27.6388  -16.8826   71.8668 H       1  DG021       0.1994
    181 H          28.1541  -12.1400   65.1042 H       1  DG021       0.0336
    182 H          29.5834  -11.8818   66.2020 H       1  DG021       0.0336
    183 H          29.5915   -9.7869   63.3036 H       1  DG021       0.0620
    184 H          30.6377  -13.6180   64.7535 H       1  DG021       0.0620
    185 H          31.2441  -10.0113   61.5291 H       1  DG021       0.0618
    186 H          32.2040  -13.8874   62.9067 H       1  DG021       0.0618
    187 H          32.5159  -12.0801   61.2963 H       1  DG021       0.0618
@<TRIPOS>BOND
     1     1     7    2
     2     1     8    1
     3     1    21    1
     4     1     3    1
     5     2     3    1
     6     2     4    1
     7     3     6    1
     8     4     5    1
     9     5     9   ar
    10     5    13   ar
    11     9    10   ar
    12    10    11   ar
    13    11    12   ar
    14    12    13   ar
    15    14    15    1
    16    14    17    1
    17    14    21    1
    18    15    16    2
    19    15    22   am
    20    17    18    1
    21    18    19    1
    22    18    20    1
    23    22    23    1
    24    23    24    1
    25    23    26    1
    26    24    25    2
    27    24    31   am
    28    26    27    1
    29    27    28    1
    30    28    29    1
    31    29    30    1
    32    31    32    1
    33    32    33    1
    34    32    35    1
    35    33    34    2
    36    33    41   am
    37    35    36    1
    38    36    37   ar
    39    36    38   ar
    40    37    40   ar
    41    38    39   ar
    42    39    40   ar
    43    41    42    1
    44    42    43    1
    45    42    45    1
    46    43    44    2
    47    43    51   am
    48    45    46    1
    49    46    47   ar
    50    46    48   ar
    51    47    50   ar
    52    48    49   ar
    53    49    50   ar
    54    51    52    1
    55    52    53    1
    56    52    55    1
    57    53    54    2
    58    53    56   am
    59    56    57    1
    60    57    58    1
    61    57    60    1
    62    58    59    2
    63    58    67   am
    64    60    61    1
    65    61    62   ar
    66    61    63   ar
    67    62    64   ar
    68    63    65   ar
    69    64    66   ar
    70    65    66   ar
    71    67    68    1
    72    68    69    1
    73    68    71    1
    74    69    70    2
    75    69    73   am
    76    71    72    1
    77    73    74    1
    78    74    75    1
    79    74    87    1
    80    75    76    2
    81    75    77   am
    82    77    78    1
    83    78    79    1
    84    78    81    1
    85    79    80   ar
    86    79    86   ar
    87    81    82    1
    88    82    83    1
    89    83    84    1
    90    84    85    1
    91    87    88    1
    92    88    89   ar
    93    88    90   ar
    94    89    91   ar
    95    90    92   ar
    96    91    93   ar
    97    92    93   ar
    98     2    94    1
    99     2    95    1
   100     3    96    1
   101     4    97    1
   102     4    98    1
   103     6    99    1
   104     6   100    1
   105     6   101    1
   106     8   102    1
   107     9   103    1
   108    10   104    1
   109    11   105    1
   110    12   106    1
   111    13   107    1
   112    14   108    1
   113    17   109    1
   114    17   110    1
   115    18   111    1
   116    19   112    1
   117    19   113    1
   118    19   114    1
   119    20   115    1
   120    20   116    1
   121    20   117    1
   122    21   118    1
   123    21   119    1
   124    22   120    1
   125    23   121    1
   126    26   122    1
   127    26   123    1
   128    27   124    1
   129    27   125    1
   130    28   126    1
   131    28   127    1
   132    29   128    1
   133    29   129    1
   134    30   130    1
   135    30   131    1
   136    30   132    1
   137    31   133    1
   138    32   134    1
   139    35   135    1
   140    35   136    1
   141    37   137    1
   142    38   138    1
   143    39   139    1
   144    41   140    1
   145    42   141    1
   146    45   142    1
   147    45   143    1
   148    47   144    1
   149    48   145    1
   150    49   146    1
   151    51   147    1
   152    52   148    1
   153    55   149    1
   154    55   150    1
   155    55   151    1
   156    56   152    1
   157    57   153    1
   158    60   154    1
   159    60   155    1
   160    62   156    1
   161    63   157    1
   162    64   158    1
   163    65   159    1
   164    66   160    1
   165    67   161    1
   166    68   162    1
   167    71   163    1
   168    71   164    1
   169    72   165    1
   170    73   166    1
   171    74   167    1
   172    77   168    1
   173    78   169    1
   174    81   170    1
   175    81   171    1
   176    82   172    1
   177    82   173    1
   178    83   174    1
   179    83   175    1
   180    84   176    1
   181    84   177    1
   182    85   178    1
   183    85   179    1
   184    85   180    1
   185    87   181    1
   186    87   182    1
   187    89   183    1
   188    90   184    1
   189    91   185    1
   190    92   186    1
   191    93   187    1
