@<TRIPOS>MOLECULE
5mj6_ligand
83   86    1
SMALL
USER_CHARGES


@<TRIPOS>ATOM
      1 P12        29.1648    3.9570   72.2813 P.3       1 LIG         1.1844 
      2 C1         29.0545    4.0925   74.1453 C.3       1 LIG         0.0588 
      3 C2         29.2084    2.7536   74.8909 C.3       1 LIG        -0.1928 
      4 C3         29.0380    2.8330   76.4283 C.3       1 LIG        -0.0050 
      5 C4         28.9935    1.4758   77.1291 C.ar      1 LIG        -0.1150 
      6 C5         28.1449    1.2916   78.2256 C.ar      1 LIG        -0.1150 
      7 C6         28.0762    0.0508   78.8560 C.ar      1 LIG        -0.1150 
      8 C7         28.8566   -1.0052   78.3897 C.ar      1 LIG        -0.1150 
      9 C8         29.7181   -0.8275   77.3100 C.ar      1 LIG        -0.1150 
     10 C9         29.7913    0.4153   76.6887 C.ar      1 LIG        -0.1150 
     11 N11        27.6465    4.6523   74.3776 N.4       1 LIG        -0.2920 
     12 O13        28.1046    2.9790   71.8635 O.co2     1 LIG        -0.8990 
     13 O14        29.1274    5.3465   71.7105 O.co2     1 LIG        -0.8990 
     14 C15        30.8427    3.2230   71.9204 C.3       1 LIG        -0.3660 
     15 C16        30.8364    1.7747   71.3326 C.3       1 LIG        -0.1328 
     16 C17        31.7001    1.7195   70.0400 C.3       1 LIG        -0.1200 
     17 C18        31.8280    0.3454   69.3255 C.3       1 LIG         0.1700 
     18 C19        30.5299   -0.2175   68.7413 C.ar      1 LIG        -0.1150 
     19 C20        30.1876   -1.5523   68.9829 C.ar      1 LIG        -0.1150 
     20 C21        29.1111   -2.1254   68.3138 C.ar      1 LIG        -0.1150 
     21 C22        28.3814   -1.3663   67.4040 C.ar      1 LIG        -0.1150 
     22 C23        28.6991   -0.0316   67.1741 C.ar      1 LIG        -0.1150 
     23 C24        29.7532    0.5505   67.8656 C.ar      1 LIG        -0.1150 
     24 C25        32.8999    0.3419   68.2365 C.ar      1 LIG        -0.1150 
     25 C26        33.9211   -0.6120   68.2760 C.ar      1 LIG        -0.1150 
     26 C27        34.8266   -0.7044   67.2247 C.ar      1 LIG        -0.1150 
     27 C28        34.7127    0.1591   66.1365 C.ar      1 LIG        -0.1150 
     28 C29        33.7141    1.1257   66.1004 C.ar      1 LIG        -0.1150 
     29 C30        32.8229    1.2338   67.1592 C.ar      1 LIG        -0.1150 
     30 C31        31.3029    0.7624   72.3973 C.2       1 LIG         0.5000 
     31 O32        32.3172    0.9987   73.0492 O.2       1 LIG        -0.5000 
     32 N33        30.5923   -0.3655   72.5706 N.am      1 LIG        -0.5000 
     33 C34        30.9546   -1.4015   73.5537 C.3       1 LIG         0.1400 
     34 C35        29.7310   -2.2983   73.8714 C.3       1 LIG        -0.0050 
     35 C36        29.0849   -3.0504   72.7131 C.ar      1 LIG        -0.1150 
     36 C37        27.7385   -2.8040   72.3774 C.ar      1 LIG        -0.1150 
     37 C38        27.1420   -3.5049   71.3388 C.ar      1 LIG        -0.1150 
     38 C39        27.8572   -4.4611   70.6317 C.ar      1 LIG        -0.1150 
     39 C40        29.1854   -4.7129   70.9457 C.ar      1 LIG        -0.1150 
     40 C41        29.8030   -4.0166   71.9748 C.ar      1 LIG        -0.1150 
     41 C42        32.2548   -2.2027   73.2739 C.2       1 LIG         0.5000 
     42 N43        32.8469   -2.0907   72.0816 N.am      1 LIG        -0.7600 
     43 O44        32.7233   -2.9086   74.1633 O.2       1 LIG        -0.5000 
     44 HC1        29.7189    4.8556   74.5458 H         1 LIG         0.1228 
     45 H2_1       30.1986    2.3611   74.6637 H         1 LIG         0.0600 
     46 H2_2       28.4951    2.0338   74.4887 H         1 LIG         0.0600 
     47 H3_1       28.1101    3.3543   76.6603 H         1 LIG         0.0600 
     48 H3_2       29.8428    3.4265   76.8645 H         1 LIG         0.0600 
     49 HC5        27.5287    2.1038   78.5848 H         1 LIG         0.1150 
     50 HC6        27.4145   -0.0929   79.6979 H         1 LIG         0.1150 
     51 HC7        28.7971   -1.9678   78.8750 H         1 LIG         0.1150 
     52 HC8        30.3291   -1.6469   76.9603 H         1 LIG         0.1150 
     53 HC9        30.4735    0.5546   75.8675 H         1 LIG         0.1150 
     54 H111       27.4277    4.7489   75.3660 H         1 LIG         0.3300 
     55 H112       27.6012    5.5899   73.9870 H         1 LIG         0.3300 
     56 H113       26.9312    4.0843   73.9418 H         1 LIG         0.3300 
     57 H151       31.4682    3.3203   72.8002 H         1 LIG         0.1228 
     58 H152       31.3212    3.8931   71.2127 H         1 LIG         0.1228 
     59 HC16       29.8297    1.4987   71.0231 H         1 LIG         0.0600 
     60 H171       32.7032    2.0631   70.2932 H         1 LIG         0.0600 
     61 H172       31.3212    2.4594   69.3336 H         1 LIG         0.0600 
     62 HC18       32.1672   -0.3554   70.0859 H         1 LIG         0.0600 
     63 HC20       30.7768   -2.1617   69.6528 H         1 LIG         0.1150 
     64 HC21       28.8547   -3.1592   68.4814 H         1 LIG         0.1150 
     65 HC22       27.5440   -1.8027   66.8828 H         1 LIG         0.1150 
     66 HC23       28.1256    0.5527   66.4692 H         1 LIG         0.1150 
     67 HC24       29.9916    1.5837   67.6676 H         1 LIG         0.1150 
     68 HC26       33.9961   -1.3078   69.0988 H         1 LIG         0.1150 
     69 HC27       35.6003   -1.4575   67.2462 H         1 LIG         0.1150 
     70 HC28       35.4007    0.0841   65.3082 H         1 LIG         0.1150 
     71 HC29       33.6268    1.7891   65.2552 H         1 LIG         0.1150 
     72 HC30       32.0543    1.9897   67.1091 H         1 LIG         0.1150 
     73 HN33       29.7611   -0.5352   72.0219 H         1 LIG         0.3000 
     74 HC34       31.1883   -0.8807   74.4805 H         1 LIG         0.0600 
     75 H351       28.9677   -1.6809   74.3502 H         1 LIG         0.0600 
     76 H352       30.0003   -3.0335   74.6284 H         1 LIG         0.0600 
     77 HC37       27.1637   -2.0787   72.9331 H         1 LIG         0.1150 
     78 HC38       26.1137   -3.3099   71.0820 H         1 LIG         0.1150 
     79 HC39       27.3807   -5.0026   69.8283 H         1 LIG         0.1150 
     80 HC40       29.7394   -5.4565   70.3920 H         1 LIG         0.1150 
     81 HC41       30.8296   -4.2450   72.2141 H         1 LIG         0.1150 
     82 H431       33.6991   -2.5971   71.8941 H         1 LIG         0.3800 
     83 H432       32.4472   -1.4935   71.3738 H         1 LIG         0.3800 
@<TRIPOS>BOND
     1    1   12 1    
     2    1   13 2    
     3    1    2 1    
     4    1   14 1    
     5    2    3 1    
     6    2   11 1    
     7    2   44 1    
     8    3    4 1    
     9    3   45 1    
    10    3   46 1    
    11    4    5 1    
    12    4   47 1    
    13    4   48 1    
    14    5    6 ar   
    15    5   10 ar   
    16    6    7 ar   
    17    6   49 1    
    18    7    8 ar   
    19    7   50 1    
    20    8    9 ar   
    21    8   51 1    
    22    9   10 ar   
    23    9   52 1    
    24   10   53 1    
    25   11   54 1    
    26   11   55 1    
    27   11   56 1    
    28   14   15 1    
    29   14   57 1    
    30   14   58 1    
    31   15   16 1    
    32   15   30 1    
    33   15   59 1    
    34   16   17 1    
    35   16   60 1    
    36   16   61 1    
    37   17   18 1    
    38   17   24 1    
    39   17   62 1    
    40   18   19 ar   
    41   18   23 ar   
    42   19   20 ar   
    43   19   63 1    
    44   20   21 ar   
    45   20   64 1    
    46   21   22 ar   
    47   21   65 1    
    48   22   23 ar   
    49   22   66 1    
    50   23   67 1    
    51   24   25 ar   
    52   24   29 ar   
    53   25   26 ar   
    54   25   68 1    
    55   26   27 ar   
    56   26   69 1    
    57   27   28 ar   
    58   27   70 1    
    59   28   29 ar   
    60   28   71 1    
    61   29   72 1    
    62   30   31 2    
    63   30   32 am   BACKBONE|DICT|INTERRES
    64   32   33 1    
    65   32   73 1    
    66   33   34 1    
    67   33   41 1    
    68   33   74 1    
    69   34   35 1    
    70   34   75 1    
    71   34   76 1    
    72   35   36 ar   
    73   35   40 ar   
    74   36   37 ar   
    75   36   77 1    
    76   37   38 ar   
    77   37   78 1    
    78   38   39 ar   
    79   38   79 1    
    80   39   40 ar   
    81   39   80 1    
    82   40   81 1    
    83   41   42 am   BACKBONE|DICT|INTERRES
    84   41   43 2    
    85   42   82 1    
    86   42   83 1    
@<TRIPOS>SUBSTRUCTURE
     1 LIG         1 GROUP             0 A     ****    0 ROOT    
